Circuit: * \\vmware-host\Shared Folders\arimura\Dropbox\_j_Ohmsha_VacuumTubeBook\LTspice\Chap8\Circuit8_10.asc

Direct Newton iteration for .op point succeeded.

Date: Sun Dec 26 15:16:19 2021
Total elapsed time: 1.203 seconds.

tnom = 27
temp = 27
method = modified trap
totiter = 3964
traniter = 3949
tranpoints = 1042
accept = 1042
rejected = 0
matrix size = 31
fillins = 16
solver = Normal
Matrix Compiler1: 2.66 KB object code size  0.8/0.5/[0.3]
Matrix Compiler2: 2.77 KB object code size  0.5/0.6/[0.4]

