Circuit: * \\vmware-host\Shared Folders\arimura\Dropbox\_j_Ohmsha_VacuumTubeBook\LTspice\Chap8\Circuit8_07.asc

Direct Newton iteration for .op point succeeded.

Date: Tue Dec 21 21:08:46 2021
Total elapsed time: 0.374 seconds.

tnom = 27
temp = 27
method = modified trap
totiter = 2265
traniter = 2250
tranpoints = 1042
accept = 1042
rejected = 0
matrix size = 37
fillins = 35
solver = Normal
Matrix Compiler1: 4.83 KB object code size  0.7/0.5/[0.4]
Matrix Compiler2: 3.87 KB object code size  0.3/0.6/[0.3]

