Circuit: * \\vmware-host\Shared Folders\arimura\Dropbox\_j_Ohmsha_VacuumTubeBook\LTspice\Chap8\Circuit8_06.asc

Direct Newton iteration for .op point succeeded.

Date: Tue Dec 21 20:55:03 2021
Total elapsed time: 1.162 seconds.

tnom = 27
temp = 27
method = modified trap
totiter = 4022
traniter = 4004
tranpoints = 1042
accept = 1042
rejected = 0
matrix size = 33
fillins = 18
solver = Normal
Matrix Compiler1: 3.03 KB object code size  0.6/0.4/[0.2]
Matrix Compiler2: off  [0.3]/0.5/0.5

