Circuit: * \\vmware-host\Shared Folders\arimura\Dropbox\_j_Ohmsha_VacuumTubeBook\LTspice\Chap8\Circuit8_02.asc

WARNING: Less than two connections to node U1:EG.  This node is used by B:U1:EG.
Direct Newton iteration failed to find .op point.  (Use ".option noopiter" to skip.)
Starting Gmin stepping
Gmin = 10
Gmin = 1.07374
vernier = 0.5
vernier = 0.25
vernier = 0.125
Gmin = 1.02385
vernier = 0.0625
vernier = 0.03125
vernier = 0.015625
Gmin = 1.01955
vernier = 0.0078125
vernier = 0.00390625
Gmin = 1.0126
vernier = 0.00195313
vernier = 0.00260417
vernier = 0.00130208
Gmin = 1.00915
vernier = 0.00173611
vernier = 0.000868055
Gmin = 1.00685
vernier = 0.00115741
vernier = 0.000578703
Gmin = 1.0054
vernier = 0.000771604
vernier = 0.000578703
vernier = 0.000771604
Gmin = 1.00409
vernier = 0.000578703
vernier = 0.000434027
vernier = 0.000578703
vernier = 0.000434027
Gmin = 1.00374
Gmin = 0
Gmin stepping failed

Starting source stepping with srcstepmethod=0
Source Step = 3.0303%
Source Step = 33.3333%
Source Step = 63.6364%
Source Step = 93.9394%
Source stepping succeeded in finding the operating point.


Date: Tue Dec 21 20:34:20 2021
Total elapsed time: 1.472 seconds.

tnom = 27
temp = 27
method = modified trap
totiter = 8669
traniter = 2864
tranpoints = 1361
accept = 1236
rejected = 125
matrix size = 45
fillins = 33
solver = Normal
Matrix Compiler1: 2.92 KB object code size  1.2/0.8/[0.3]
Matrix Compiler2: off  [0.9]/6.4/1.0

