Circuit: * \\vmware-host\Shared Folders\arimura\Dropbox\_j_Ohmsha_VacuumTubeBook\LTspice\Chap8\Circuit8_09.asc

Direct Newton iteration for .op point succeeded.

Date: Tue Dec 21 21:14:33 2021
Total elapsed time: 0.407 seconds.

tnom = 27
temp = 27
method = modified trap
totiter = 2177
traniter = 2162
tranpoints = 1042
accept = 1042
rejected = 0
matrix size = 39
fillins = 37
solver = Normal
Matrix Compiler1: 5.04 KB object code size  1.5/1.1/[0.6]
Matrix Compiler2: off  [0.6]/0.9/0.9

