Circuit: * \\vmware-host\Shared Folders\arimura\Dropbox\_j_Ohmsha_VacuumTubeBook\LTspice\Chap8\Circuit8_04.asc

WARNING: Less than two connections to node U1:EG.  This node is used by B:U1:EG.
Direct Newton iteration for .op point succeeded.

Date: Tue Dec 21 20:43:57 2021
Total elapsed time: 0.944 seconds.

tnom = 27
temp = 27
method = modified trap
totiter = 3817
traniter = 3809
tranpoints = 1042
accept = 1042
rejected = 0
matrix size = 43
fillins = 20
solver = Normal
Matrix Compiler1: 2.85 KB object code size  1.1/0.7/[0.3]
Matrix Compiler2: off  [0.6]/0.8/0.7

