Circuit: * \\vmware-host\Shared Folders\arimura\Dropbox\_j_Ohmsha_VacuumTubeBook\LTspice\Chap8\Circuit8_05.asc

Direct Newton iteration for .op point succeeded.

Date: Tue Dec 21 20:49:17 2021
Total elapsed time: 0.772 seconds.

tnom = 27
temp = 27
method = modified trap
totiter = 2406
traniter = 2388
tranpoints = 1042
accept = 1042
rejected = 0
matrix size = 41
fillins = 37
solver = Normal
Matrix Compiler1: 5.30 KB object code size  1.7/1.0/[1.0]
Matrix Compiler2: off  [0.5]/0.9/0.9

