Circuit: * \\vmware-host\Shared Folders\arimura\Dropbox\_j_Ohmsha_VacuumTubeBook\LTspice\Chap8\Circuit8_08.asc

Direct Newton iteration for .op point succeeded.

Date: Tue Dec 21 21:05:18 2021
Total elapsed time: 0.282 seconds.

tnom = 27
temp = 27
method = modified trap
totiter = 4007
traniter = 3992
tranpoints = 1042
accept = 1042
rejected = 0
matrix size = 29
fillins = 16
solver = Normal
Matrix Compiler1: 2.56 KB object code size  0.8/0.6/[0.3]
Matrix Compiler2: off  [0.4]/0.6/0.7

