Circuit: * \\vmware-host\Shared Folders\arimura\Dropbox\_j_Ohmsha_VacuumTubeBook\LTspice\Chap6\Circuit6_01.asc

WARNING: Less than two connections to node U1:EG.  This node is used by B:U1:EG.
.step vg=-3
.step vg=-2
.step vg=-1
.step vg=0
.step vg=1
.step vg=2
.step vg=3
.step vg=4
.step vg=5

Date: Sun Dec 19 18:02:15 2021
Total elapsed time: 1.313 seconds.

tnom = 27
temp = 27
method = trap
totiter = 121
traniter = 0
tranpoints = 0
accept = 0
rejected = 0
matrix size = 20
fillins = 0
solver = Normal
Matrix Compiler1: 666 bytes object code size  0.3/0.2/[0.1]
Matrix Compiler2: off  [0.2]/0.3/1.2

