Circuit: * \\vmware-host\Shared Folders\arimura\Dropbox\_j_Ohmsha_VacuumTubeBook\LTspice\Chap6\Circuit6_14.asc

Direct Newton iteration for .op point succeeded.

Date: Sun Dec 19 20:26:14 2021
Total elapsed time: 1.177 seconds.

tnom = 27
temp = 27
method = modified trap
totiter = 2154
traniter = 2139
tranpoints = 1042
accept = 1042
rejected = 0
matrix size = 17
fillins = 2
solver = Normal
Matrix Compiler1: 1.18 KB object code size  0.4/0.3/[0.2]
Matrix Compiler2: off  [0.2]/0.3/0.2

