Circuit: * \\vmware-host\Shared Folders\arimura\Dropbox\_j_Ohmsha_VacuumTubeBook\LTspice\Chap6\Circuit6_12.asc

Direct Newton iteration for .op point succeeded.

Date: Sun Dec 19 19:57:36 2021
Total elapsed time: 0.719 seconds.

tnom = 27
temp = 27
method = modified trap
totiter = 2473
traniter = 2455
tranpoints = 1042
accept = 1042
rejected = 0
matrix size = 19
fillins = 4
solver = Normal
Matrix Compiler1: 1.55 KB object code size  0.7/0.4/[0.2]
Matrix Compiler2: off  [0.3]/0.4/0.4

