Circuit: * \\vmware-host\Shared Folders\arimura\Dropbox\_j_Ohmsha_VacuumTubeBook\LTspice\Chap6\Circuit6_02.asc

WARNING: Less than two connections to node U1:EG.  This node is used by B:U1:EG.
.step vg=1
.step vg=1.5
.step vg=2
.step vg=2.5
.step vg=3
.step vg=3.5
.step vg=4

Date: Sun Dec 19 18:07:36 2021
Total elapsed time: 1.348 seconds.

tnom = 27
temp = 27
method = trap
totiter = 624
traniter = 0
tranpoints = 0
accept = 0
rejected = 0
matrix size = 20
fillins = 0
solver = Normal
Matrix Compiler1: 666 bytes object code size  0.2/0.2/[0.0]
Matrix Compiler2: 1.07 KB object code size  0.2/0.2/[0.1]

