Circuit: * \\vmware-host\Shared Folders\arimura\Dropbox\_j_Ohmsha_VacuumTubeBook\LTspice\Chap6\Circuit6_11.asc

.step vg=-1.2
.step vg=-1.1
.step vg=-1
.step vg=-0.9
.step vg=-0.8
.step vg=-0.7
.step vg=-0.6
.step vg=-0.5
.step vg=-0.4
.step vg=-0.3
.step vg=-0.2
.step vg=-0.1
.step vg=-2.77556e-017

Date: Sun Dec 19 19:40:49 2021
Total elapsed time: 2.311 seconds.

tnom = 27
temp = 27
method = trap
totiter = 612
traniter = 0
tranpoints = 0
accept = 0
rejected = 0
matrix size = 12
fillins = 0
solver = Normal
Matrix Compiler1: 482 bytes object code size  0.2/0.2/[0.2]
Matrix Compiler2: off  [0.2]/0.3/0.2

