Circuit: * \\vmware-host\Shared Folders\arimura\Dropbox\_j_Ohmsha_VacuumTubeBook\LTspice\Chap6\Circuit6_08.asc

Direct Newton iteration for .op point succeeded.

Date: Sun Dec 19 19:19:59 2021
Total elapsed time: 1.017 seconds.

tnom = 27
temp = 27
method = modified trap
totiter = 2292
traniter = 2276
tranpoints = 1042
accept = 1042
rejected = 0
matrix size = 15
fillins = 2
solver = Normal
Matrix Compiler1: 1.08 KB object code size  0.5/1.4/[0.2]
Matrix Compiler2: 1.19 KB object code size  0.3/0.4/[0.2]

