Circuit: * \\vmware-host\Shared Folders\arimura\Dropbox\_j_Ohmsha_VacuumTubeBook\LTspice\Chap6\Circuit6_03.asc

WARNING: Less than two connections to node U1:EG.  This node is used by B:U1:EG.
Direct Newton iteration for .op point succeeded.

Date: Sun Dec 19 18:14:21 2021
Total elapsed time: 0.280 seconds.

tnom = 27
temp = 27
method = modified trap
totiter = 2115
traniter = 2106
tranpoints = 1042
accept = 1042
rejected = 0
matrix size = 33
fillins = 5
solver = Normal
Matrix Compiler1: 1.60 KB object code size  0.8/0.5/[0.3]
Matrix Compiler2: 2.28 KB object code size  0.4/0.7/[0.3]

