Circuit: * \\vmware-host\Shared Folders\arimura\Dropbox\_j_Ohmsha_VacuumTubeBook\LTspice\Chap6\Circuit6_10.asc

Direct Newton iteration for .op point succeeded.

Date: Sun Dec 19 19:31:21 2021
Total elapsed time: 0.312 seconds.

tnom = 27
temp = 27
method = trap
totiter = 16
traniter = 0
tranpoints = 0
accept = 0
rejected = 0
matrix size = 15
fillins = 2
solver = Normal
Matrix Compiler1:      59 opcodes
Matrix Compiler2: 1.21 KB object code size
