Circuit: * \\vmware-host\Shared Folders\arimura\Dropbox\_j_Ohmsha_VacuumTubeBook\LTspice\Chap6\Circuit6_13.asc

Direct Newton iteration for .op point succeeded.

Date: Sun Dec 19 20:03:11 2021
Total elapsed time: 0.469 seconds.

tnom = 27
temp = 27
method = modified trap
totiter = 2252
traniter = 2237
tranpoints = 1042
accept = 1042
rejected = 0
matrix size = 15
fillins = 2
solver = Normal
Matrix Compiler1: 1.08 KB object code size  0.5/0.4/[0.2]
Matrix Compiler2: off  [0.2]/0.3/0.3

