Circuit: * \\vmware-host\Shared Folders\arimura\Dropbox\_j_Ohmsha_VacuumTubeBook\LTspice\Chap6\Circuit6_09.asc

Direct Newton iteration for .op point succeeded.

Date: Sun Dec 19 19:26:36 2021
Total elapsed time: 16.820 seconds.

tnom = 27
temp = 27
method = modified trap
totiter = 1000051
traniter = 1000035
tranpoints = 500018
accept = 500018
rejected = 0
matrix size = 15
fillins = 2
solver = Normal
Matrix Compiler1: 1.08 KB object code size  0.4/0.3/[0.2]
Matrix Compiler2: off  [0.2]/0.3/0.4

