Circuit: * \\vmware-host\Shared Folders\arimura\Dropbox\_j_Ohmsha_VacuumTubeBook\LTspice\Chap7\Circuit7_28.asc

Model "u2:_u1:pmos2": Oxide thickness thinner than recommended for a level 1 MOSFET.
Instance "m:u2:_u1:2": Length shorter than recommended for a level 1 MOSFET.
Instance "m:u2:_u1:2": Width narrower than recommended for a level 1 MOSFET.
Model "u2:_u1:pmos1": Oxide thickness thinner than recommended for a level 1 MOSFET.
Instance "m:u2:_u1:1": Length shorter than recommended for a level 1 MOSFET.
Instance "m:u2:_u1:1": Width narrower than recommended for a level 1 MOSFET.
Model "u1:_u1:pmos2": Oxide thickness thinner than recommended for a level 1 MOSFET.
Instance "m:u1:_u1:2": Length shorter than recommended for a level 1 MOSFET.
Instance "m:u1:_u1:2": Width narrower than recommended for a level 1 MOSFET.
Model "u1:_u1:pmos1": Oxide thickness thinner than recommended for a level 1 MOSFET.
Instance "m:u1:_u1:1": Length shorter than recommended for a level 1 MOSFET.
Instance "m:u1:_u1:1": Width narrower than recommended for a level 1 MOSFET.
Early termination of direct N-R iteration.
Direct Newton iteration failed to find .op point.  (Use ".option noopiter" to skip.)
Starting Gmin stepping
Gmin = 10
Gmin = 1.07374
vernier = 0.5
vernier = 0.25
vernier = 0.125
vernier = 0.0625
Gmin = 1.04056
vernier = 0.03125
vernier = 0.015625
vernier = 0.0078125
Gmin = 1.02049
vernier = 0.00390625
Gmin = 1.00959
vernier = 0.00520833
vernier = 0.00260417
vernier = 0.00130208
Gmin = 1.00697
vernier = 0.00173611
vernier = 0.000868055
vernier = 0.00115741
Gmin = 1.00496
vernier = 0.000578703
vernier = 0.000771604
vernier = 0.000578703
Gmin = 1.00419
vernier = 0.000434027
Gmin = 1.00321
Gmin = 0
Gmin stepping failed

Starting source stepping with srcstepmethod=0
Source Step = 3.0303%
Source Step = 33.3333%
Source Step = 63.6364%
Source Step = 93.9394%
Source stepping succeeded in finding the operating point.


Date: Tue Dec 21 19:32:58 2021
Total elapsed time: 3.505 seconds.

tnom = 27
temp = 27
method = modified trap
totiter = 8688
traniter = 3554
tranpoints = 1114
accept = 1096
rejected = 18
matrix size = 54
fillins = 176
solver = Normal
Matrix Compiler1:     827 opcodes  7.0/[3.9]/8.1
Matrix Compiler2: 7.83 KB object code size  6.8/3.2/[1.9]

