Circuit: * \\vmware-host\Shared Folders\arimura\Dropbox\_j_Ohmsha_VacuumTubeBook\LTspice\Chap7\Circuit7_25.asc

Direct Newton iteration for .op point succeeded.

Date: Sun Dec 19 22:52:01 2021
Total elapsed time: 0.343 seconds.

tnom = 27
temp = 27
method = modified trap
totiter = 2085
traniter = 2082
tranpoints = 1042
accept = 1042
rejected = 0
matrix size = 3
fillins = 0
solver = Normal
Matrix Compiler1: off  [0.1]/0.1/0.1
Matrix Compiler2: 203 bytes object code size  0.1/0.1/[0.1]

