Circuit: * \\vmware-host\Shared Folders\arimura\Dropbox\_j_Ohmsha_VacuumTubeBook\LTspice\Chap7\Circuit7_14.asc

Direct Newton iteration for .op point succeeded.

Date: Sun Dec 19 21:56:45 2021
Total elapsed time: 0.631 seconds.

tnom = 27
temp = 27
method = modified trap
totiter = 2091
traniter = 2085
tranpoints = 1042
accept = 1042
rejected = 0
matrix size = 23
fillins = 0
solver = Normal
Matrix Compiler1: 1.86 KB object code size  0.7/0.5/[0.3]
Matrix Compiler2: 2.12 KB object code size  0.4/0.7/[0.4]

