Circuit: * \\vmware-host\Shared Folders\arimura\Dropbox\_j_Ohmsha_VacuumTubeBook\LTspice\Chap7\Circuit7_27.asc

Model "u2:_u1:pmos2": Oxide thickness thinner than recommended for a level 1 MOSFET.
Instance "m:u2:_u1:2": Length shorter than recommended for a level 1 MOSFET.
Instance "m:u2:_u1:2": Width narrower than recommended for a level 1 MOSFET.
Model "u2:_u1:pmos1": Oxide thickness thinner than recommended for a level 1 MOSFET.
Instance "m:u2:_u1:1": Length shorter than recommended for a level 1 MOSFET.
Instance "m:u2:_u1:1": Width narrower than recommended for a level 1 MOSFET.
Model "u1:_u1:pmos2": Oxide thickness thinner than recommended for a level 1 MOSFET.
Instance "m:u1:_u1:2": Length shorter than recommended for a level 1 MOSFET.
Instance "m:u1:_u1:2": Width narrower than recommended for a level 1 MOSFET.
Model "u1:_u1:pmos1": Oxide thickness thinner than recommended for a level 1 MOSFET.
Instance "m:u1:_u1:1": Length shorter than recommended for a level 1 MOSFET.
Instance "m:u1:_u1:1": Width narrower than recommended for a level 1 MOSFET.
Early termination of direct N-R iteration.
Direct Newton iteration failed to find .op point.  (Use ".option noopiter" to skip.)
Starting Gmin stepping
Gmin = 10
Gmin = 1.07374
vernier = 0.5
vernier = 0.25
vernier = 0.125
vernier = 0.0625
Gmin = 1.04056
vernier = 0.03125
vernier = 0.015625
vernier = 0.0078125
Gmin = 1.02049
vernier = 0.00390625
Gmin = 1.00959
vernier = 0.00520833
vernier = 0.00260417
vernier = 0.00130208
Gmin = 1.00697
vernier = 0.00173611
vernier = 0.000868055
vernier = 0.00115741
Gmin = 1.00496
vernier = 0.000578703
vernier = 0.000771604
vernier = 0.000578703
Gmin = 1.00419
vernier = 0.000434027
Gmin = 1.00321
Gmin = 0
Gmin stepping failed

Starting source stepping with srcstepmethod=0
Source Step = 3.0303%
Source Step = 33.3333%
Source Step = 63.6364%
Source Step = 93.9394%
Source stepping succeeded in finding the operating point.


Date: Tue Dec 21 19:27:15 2021
Total elapsed time: 3.234 seconds.

tnom = 27
temp = 27
method = modified trap
totiter = 8490
traniter = 3365
tranpoints = 1078
accept = 1069
rejected = 9
matrix size = 47
fillins = 140
solver = Normal
Matrix Compiler1: 11.57 KB object code size  3.2/2.4/[2.3]
Matrix Compiler2: 6.42 KB object code size  1.3/1.6/[1.1]

