Circuit: * \\vmware-host\Shared Folders\arimura\Dropbox\_j_Ohmsha_VacuumTubeBook\LTspice\Chap7\Circuit7_31.asc

Direct Newton iteration for .op point succeeded.

Date: Tue Dec 21 19:56:42 2021
Total elapsed time: 0.562 seconds.

tnom = 27
temp = 27
method = modified trap
totiter = 3696
traniter = 3686
tranpoints = 1106
accept = 1061
rejected = 45
matrix size = 23
fillins = 43
solver = Normal
Matrix Compiler1: 4.73 KB object code size  1.2/1.0/[0.5]
Matrix Compiler2: 2.83 KB object code size  0.5/0.7/[0.4]

