Circuit: * \\vmware-host\Shared Folders\arimura\Dropbox\_j_Ohmsha_VacuumTubeBook\LTspice\Chap7\Circuit7_15.asc

Direct Newton iteration for .op point succeeded.

Date: Sun Dec 19 22:10:25 2021
Total elapsed time: 0.422 seconds.

tnom = 27
temp = 27
method = modified trap
totiter = 2090
traniter = 2083
tranpoints = 1042
accept = 1042
rejected = 0
matrix size = 9
fillins = 0
solver = Normal
Matrix Compiler1: 448 bytes object code size  0.2/0.1/[0.1]
Matrix Compiler2: 649 bytes object code size  0.1/0.2/[0.1]

