Circuit: * \\vmware-host\Shared Folders\arimura\Dropbox\_j_Ohmsha_VacuumTubeBook\LTspice\Chap7\Circuit7_13.asc

Direct Newton iteration for .op point succeeded.

Date: Sun Dec 19 21:49:14 2021
Total elapsed time: 0.316 seconds.

tnom = 27
temp = 27
method = modified trap
totiter = 2090
traniter = 2082
tranpoints = 1042
accept = 1042
rejected = 0
matrix size = 23
fillins = 2
solver = Normal
Matrix Compiler1: 1.76 KB object code size  0.9/0.4/[0.2]
Matrix Compiler2: 2.09 KB object code size  0.4/0.5/[0.3]

