Circuit: * \\vmware-host\Shared Folders\arimura\Dropbox\_j_Ohmsha_VacuumTubeBook\LTspice\Chap7\Circuit7_12.asc

Direct Newton iteration for .op point succeeded.

Date: Sun Dec 19 21:47:56 2021
Total elapsed time: 0.468 seconds.

tnom = 27
temp = 27
method = modified trap
totiter = 2086
traniter = 2082
tranpoints = 1042
accept = 1042
rejected = 0
matrix size = 39
fillins = 32
solver = Normal
Matrix Compiler1: 4.87 KB object code size  2.3/1.9/[0.6]
Matrix Compiler2: 4.20 KB object code size  1.0/1.6/[0.6]

