Circuit: * \\vmware-host\Shared Folders\arimura\Dropbox\_j_Ohmsha_VacuumTubeBook\LTspice\Chap7\Circuit7_30.asc

Direct Newton iteration for .op point succeeded.

Date: Tue Dec 21 19:39:11 2021
Total elapsed time: 1.738 seconds.

tnom = 27
temp = 27
method = modified trap
totiter = 3190
traniter = 3180
tranpoints = 1046
accept = 1045
rejected = 1
matrix size = 23
fillins = 43
solver = Normal
Matrix Compiler1: 4.73 KB object code size  1.4/0.9/[0.7]
Matrix Compiler2: off  [0.5]/3.5/0.6

