Circuit: * \\vmware-host\Shared Folders\arimura\Dropbox\_j_Ohmsha_VacuumTubeBook\LTspice\Chap7\Circuit7_24.asc

Direct Newton iteration for .op point succeeded.

Date: Sun Dec 19 22:40:34 2021
Total elapsed time: 1.172 seconds.

tnom = 27
temp = 27
method = trap
totiter = 10
traniter = 0
tranpoints = 0
accept = 0
rejected = 0
matrix size = 19
fillins = 10
solver = Normal
Matrix Compiler1:      79 opcodes
Matrix Compiler2: 1.68 KB object code size
