Circuit: * \\vmware-host\Shared Folders\arimura\Dropbox\_j_Ohmsha_VacuumTubeBook\LTspice\Chap7\Circuit7_08.asc

Direct Newton iteration for .op point succeeded.

Date: Sun Dec 19 21:15:32 2021
Total elapsed time: 0.561 seconds.

tnom = 27
temp = 27
method = modified trap
totiter = 2090
traniter = 2082
tranpoints = 1042
accept = 1042
rejected = 0
matrix size = 19
fillins = 0
solver = Normal
Matrix Compiler1:      73 opcodes  0.4/[0.2]/0.3
Matrix Compiler2: off  [0.2]/0.5/0.3

