Circuit: * \\vmware-host\Shared Folders\arimura\Dropbox\_j_Ohmsha_VacuumTubeBook\LTspice\Chap7\Circuit7_22.asc

Direct Newton iteration for .op point succeeded.

Date: Sun Dec 19 22:34:13 2021
Total elapsed time: 0.532 seconds.

tnom = 27
temp = 27
method = modified trap
totiter = 3118
traniter = 3108
tranpoints = 1042
accept = 1042
rejected = 0
matrix size = 19
fillins = 10
solver = Normal
Matrix Compiler1: 1.38 KB object code size  0.5/0.4/[0.2]
Matrix Compiler2: 1.68 KB object code size  0.3/0.4/[0.3]

