Circuit: * \\vmware-host\Shared Folders\arimura\Dropbox\_j_Ohmsha_VacuumTubeBook\LTspice\Chap7\Circuit7_10.asc

Direct Newton iteration for .op point succeeded.

Date: Sun Dec 19 21:37:28 2021
Total elapsed time: 0.359 seconds.

tnom = 27
temp = 27
method = modified trap
totiter = 2087
traniter = 2082
tranpoints = 1042
accept = 1042
rejected = 0
matrix size = 23
fillins = 2
solver = Normal
Matrix Compiler1: 1.61 KB object code size  0.5/0.3/[0.3]
Matrix Compiler2: 2.03 KB object code size  0.3/0.4/[0.3]

