Circuit: * Z:\arimura\Dropbox\_j_Ohmsha_VacuumTubeBook\LTspice\Chap7\Circuit7_29.asc

Direct Newton iteration for .op point succeeded.

Date: Mon Dec 20 08:19:53 2021
Total elapsed time: 1.375 seconds.

tnom = 27
temp = 27
method = modified trap
totiter = 3190
traniter = 3180
tranpoints = 1046
accept = 1045
rejected = 1
matrix size = 23
fillins = 43
solver = Normal
Matrix Compiler1: 4.73 KB object code size  1.2/0.8/[0.4]
Matrix Compiler2: 2.83 KB object code size  0.4/0.6/[0.4]

