Circuit: * \\vmware-host\Shared Folders\arimura\Dropbox\_j_Ohmsha_VacuumTubeBook\LTspice\Chap7\Circuit7_26.asc

Direct Newton iteration for .op point succeeded.

Date: Tue Dec 21 19:25:05 2021
Total elapsed time: 1.653 seconds.

tnom = 27
temp = 27
method = modified trap
totiter = 3123
traniter = 3116
tranpoints = 1042
accept = 1042
rejected = 0
matrix size = 16
fillins = 23
solver = Normal
Matrix Compiler1: 2.42 KB object code size  0.6/0.5/[0.3]
Matrix Compiler2: off  [0.2]/0.4/0.3

