Circuit: * \\vmware-host\Shared Folders\arimura\Dropbox\_j_Ohmsha_VacuumTubeBook\LTspice\Chap7\Circuit7_02.asc

WARNING: Less than two connections to node U1:EG.  This node is used by B:U1:EG.
Direct Newton iteration for .op point succeeded.

Date: Sun Dec 19 21:02:34 2021
Total elapsed time: 0.472 seconds.

tnom = 27
temp = 27
method = modified trap
totiter = 2178
traniter = 2169
tranpoints = 1042
accept = 1042
rejected = 0
matrix size = 29
fillins = 4
solver = Normal
Matrix Compiler1: 1.27 KB object code size  0.4/0.3/[0.2]
Matrix Compiler2: off  [0.2]/0.5/0.3

