Circuit: * \\vmware-host\Shared Folders\arimura\Dropbox\_j_Ohmsha_VacuumTubeBook\LTspice\Chap7\Circuit7_18.asc

Direct Newton iteration for .op point succeeded.

Date: Sun Dec 19 22:26:00 2021
Total elapsed time: 0.456 seconds.

tnom = 27
temp = 27
method = modified trap
totiter = 3108
traniter = 3100
tranpoints = 1042
accept = 1042
rejected = 0
matrix size = 9
fillins = 0
solver = Normal
Matrix Compiler1: 466 bytes object code size  0.2/0.2/[0.1]
Matrix Compiler2: off  [0.1]/0.3/0.2

