Circuit: * \\vmware-host\Shared Folders\arimura\Dropbox\_j_Ohmsha_VacuumTubeBook\LTspice\Chap7\Circuit7_01.asc

WARNING: Less than two connections to node U1:EG.  This node is used by B:U1:EG.
Direct Newton iteration for .op point succeeded.

Date: Sun Dec 19 20:59:43 2021
Total elapsed time: 0.296 seconds.

tnom = 27
temp = 27
method = modified trap
totiter = 2345
traniter = 2336
tranpoints = 1057
accept = 1048
rejected = 9
matrix size = 29
fillins = 4
solver = Normal
Matrix Compiler1: 1.27 KB object code size  0.3/0.3/[0.2]
Matrix Compiler2: off  [0.2]/0.4/0.2

