Circuit: * \\vmware-host\Shared Folders\arimura\Dropbox\_j_Ohmsha_VacuumTubeBook\LTspice\Appendix\Circuit_12AX7.asc

.step vg=-1
.step vg=-0.9
.step vg=-0.8
.step vg=-0.7
.step vg=-0.6
.step vg=-0.5
.step vg=-0.4
.step vg=-0.3
.step vg=-0.2
.step vg=-0.1
.step vg=-1.38778e-016

Date: Fri Dec 31 17:14:46 2021
Total elapsed time: 1.672 seconds.

tnom = 27
temp = 27
method = trap
totiter = 622
traniter = 0
tranpoints = 0
accept = 0
rejected = 0
matrix size = 10
fillins = 0
solver = Normal
Matrix Compiler1: 364 bytes object code size  0.1/0.1/[0.1]
Matrix Compiler2: 602 bytes object code size  0.1/0.1/[0.1]

