Circuit: * \\vmware-host\Shared Folders\arimura\Dropbox\_j_Ohmsha_VacuumTubeBook\LTspice\ChapA\Circuit_12AU7.asc

.step vg=-3
.step vg=-2.8
.step vg=-2.6
.step vg=-2.4
.step vg=-2.2
.step vg=-2
.step vg=-1.8
.step vg=-1.6
.step vg=-1.4
.step vg=-1.2
.step vg=-1
.step vg=-0.8
.step vg=-0.6
.step vg=-0.4
.step vg=-0.2
.step vg=0

Date: Fri Dec 31 17:36:14 2021
Total elapsed time: 2.417 seconds.

tnom = 27
temp = 27
method = trap
totiter = 611
traniter = 0
tranpoints = 0
accept = 0
rejected = 0
matrix size = 8
fillins = 0
solver = Normal
Matrix Compiler1: 300 bytes object code size  0.1/0.1/[0.1]
Matrix Compiler2: 496 bytes object code size  0.1/0.1/[0.1]

