Circuit: * \\vmware-host\Shared Folders\arimura\Dropbox\_j_Ohmsha_VacuumTubeBook\LTspice\ChapA\Circuit_6DJ8.asc

.step vg=-2
.step vg=-1.9
.step vg=-1.8
.step vg=-1.7
.step vg=-1.6
.step vg=-1.5
.step vg=-1.4
.step vg=-1.3
.step vg=-1.2
.step vg=-1.1
.step vg=-1
.step vg=-0.9
.step vg=-0.8
.step vg=-0.7
.step vg=-0.6
.step vg=-0.5
.step vg=-0.4
.step vg=-0.3
.step vg=-0.2
.step vg=-0.1
.step vg=0

Date: Fri Dec 31 17:48:33 2021
Total elapsed time: 2.781 seconds.

tnom = 27
temp = 27
method = trap
totiter = 601
traniter = 0
tranpoints = 0
accept = 0
rejected = 0
matrix size = 8
fillins = 0
solver = Normal
Matrix Compiler1:      18 opcodes  0.1/[0.1]/0.1
Matrix Compiler2: 496 bytes object code size  0.1/0.1/[0.1]

