Circuit: * \\vmware-host\Shared Folders\arimura\Dropbox\_j_Ohmsha_VacuumTubeBook\LTspice\ChapA\Circuit_WE409A.asc

.step vg=-2
.step vg=-1.8
.step vg=-1.6
.step vg=-1.4
.step vg=-1.2
.step vg=-1
.step vg=-0.8
.step vg=-0.6
.step vg=-0.4
.step vg=-0.2
.step vg=-2.77556e-016

Date: Fri Dec 31 20:08:11 2021
Total elapsed time: 1.793 seconds.

tnom = 27
temp = 27
method = trap
totiter = 619
traniter = 0
tranpoints = 0
accept = 0
rejected = 0
matrix size = 10
fillins = 0
solver = Normal
Matrix Compiler1: 364 bytes object code size  0.1/0.5/[0.1]
Matrix Compiler2: off  [0.1]/0.2/0.1

