Circuit: * \\vmware-host\Shared Folders\arimura\Dropbox\_j_Ohmsha_VacuumTubeBook\LTspice\Appendix\Circuit_6AS5.asc

.step vg=-5
.step vg=-4.5
.step vg=-4
.step vg=-3.5
.step vg=-3
.step vg=-2.5
.step vg=-2
.step vg=-1.5
.step vg=-1
.step vg=-0.5
.step vg=0

Date: Fri Dec 31 17:10:14 2021
Total elapsed time: 2.009 seconds.

tnom = 27
temp = 27
method = trap
totiter = 619
traniter = 0
tranpoints = 0
accept = 0
rejected = 0
matrix size = 8
fillins = 0
solver = Normal
Matrix Compiler1: 300 bytes object code size  0.2/0.1/[0.1]
Matrix Compiler2: 496 bytes object code size  0.1/0.2/[0.1]

